  
       XFOIL         Version 6.99
  
 Calculated polar for: NACA 2412                                       
  
 1 1 Reynolds number fixed          Mach number fixed         
  
 xtrf =   1.000 (top)        1.000 (bottom)  
 Mach =   0.000     Re =     0.250 e 6     Ncrit =   9.000
  
   alpha    CL        CD       CDp       CM     Top_Xtr  Bot_Xtr
  ------ -------- --------- --------- -------- -------- --------
  -5.000  -0.3980   0.01507   0.00765  -0.0411   0.9771   0.0990
  -4.000  -0.2455   0.01319   0.00608  -0.0502   0.9591   0.1742
  -3.000  -0.0985   0.01151   0.00501  -0.0578   0.9390   0.3276
  -2.000   0.0197   0.00975   0.00424  -0.0583   0.9064   0.5826
  -1.000   0.1204   0.00867   0.00392  -0.0531   0.8622   0.8298
   0.000   0.2489   0.00870   0.00385  -0.0534   0.8066   0.9593
   1.000   0.4208   0.00886   0.00358  -0.0653   0.7368   1.0000
   2.000   0.5153   0.00917   0.00347  -0.0618   0.6656   1.0000
   3.000   0.6101   0.00974   0.00372  -0.0583   0.5997   1.0000
   4.000   0.7046   0.01044   0.00419  -0.0546   0.5359   1.0000
   5.000   0.7988   0.01128   0.00483  -0.0509   0.4680   1.0000
   6.000   0.8919   0.01227   0.00567  -0.0473   0.3872   1.0000
   7.000   0.9782   0.01390   0.00693  -0.0430   0.2738   1.0000
   8.000   1.0521   0.01678   0.00917  -0.0374   0.1433   1.0000
   9.000   1.1167   0.02028   0.01238  -0.0307   0.0844   1.0000
  10.000   1.1682   0.02401   0.01617  -0.0222   0.0628   1.0000
  11.000   1.2129   0.02837   0.02071  -0.0143   0.0512   1.0000
  12.000   1.2543   0.03378   0.02637  -0.0078   0.0438   1.0000
  13.000   1.2917   0.04026   0.03318  -0.0025   0.0385   1.0000
  14.000   1.3268   0.04796   0.04112   0.0016   0.0345   1.0000
  15.000   1.3164   0.05922   0.05324   0.0037   0.0322   1.0000
  16.000   1.2939   0.07377   0.06843   0.0019   0.0306   1.0000
  17.000   1.2527   0.09301   0.08825  -0.0046   0.0296   1.0000
  18.000   0.6541   0.18053   0.17744  -0.0368   0.0562   1.0000
  19.000   0.6332   0.19494   0.19185  -0.0463   0.0494   1.0000
  20.000   0.6369   0.20764   0.20458  -0.0522   0.0437   1.0000
