  
       XFOIL         Version 6.99
  
 Calculated polar for: NACA 4412                                       
  
 1 1 Reynolds number fixed          Mach number fixed         
  
 xtrf =   1.000 (top)        1.000 (bottom)  
 Mach =   0.000     Re =     0.250 e 6     Ncrit =   9.000
  
   alpha    CL        CD       CDp       CM     Top_Xtr  Bot_Xtr
  ------ -------- --------- --------- -------- -------- --------
  -5.000  -0.0948   0.01664   0.00948  -0.1067   0.9294   0.0703
  -4.000   0.0285   0.01431   0.00707  -0.1085   0.9061   0.0965
  -3.000   0.1446   0.01250   0.00535  -0.1086   0.8771   0.1471
  -2.000   0.2542   0.01131   0.00438  -0.1074   0.8382   0.2449
  -1.000   0.3603   0.00996   0.00382  -0.1059   0.7934   0.4993
   0.000   0.4883   0.00888   0.00362  -0.1072   0.7431   1.0000
   1.000   0.5909   0.00931   0.00352  -0.1049   0.6899   1.0000
   2.000   0.6950   0.00992   0.00374  -0.1031   0.6413   1.0000
   3.000   0.8001   0.01066   0.00419  -0.1016   0.6000   1.0000
   4.000   0.9051   0.01146   0.00485  -0.1003   0.5630   1.0000
   5.000   1.0091   0.01232   0.00566  -0.0988   0.5279   1.0000
   6.000   1.1095   0.01323   0.00654  -0.0967   0.4886   1.0000
   7.000   1.2024   0.01411   0.00748  -0.0933   0.4394   1.0000
   8.000   1.2878   0.01518   0.00864  -0.0887   0.3795   1.0000
   9.000   1.3531   0.01718   0.01044  -0.0812   0.2842   1.0000
  10.000   1.3738   0.02163   0.01423  -0.0680   0.1527   1.0000
  11.000   1.3822   0.02807   0.02035  -0.0566   0.0835   1.0000
  12.000   1.3902   0.03584   0.02825  -0.0486   0.0617   1.0000
  13.000   1.3958   0.04504   0.03770  -0.0434   0.0506   1.0000
  14.000   1.4012   0.05507   0.04801  -0.0399   0.0433   1.0000
  15.000   1.4118   0.06501   0.05823  -0.0371   0.0381   1.0000
  16.000   1.4266   0.07475   0.06820  -0.0349   0.0337   1.0000
  17.000   1.4294   0.08700   0.08102  -0.0353   0.0308   1.0000
  18.000   1.4291   0.09977   0.09418  -0.0362   0.0284   1.0000
  19.000   1.3865   0.12122   0.11650  -0.0450   0.0271   1.0000
  20.000   1.3159   0.15133   0.14750  -0.0626   0.0267   1.0000
