  
       XFOIL         Version 6.99
  
 Calculated polar for: SD7037-092-88                                   
  
 1 1 Reynolds number fixed          Mach number fixed         
  
 xtrf =   1.000 (top)        1.000 (bottom)  
 Mach =   0.000     Re =     0.250 e 6     Ncrit =   9.000
  
   alpha    CL        CD       CDp       CM     Top_Xtr  Bot_Xtr
  ------ -------- --------- --------- -------- -------- --------
  -5.000  -0.2751   0.03606   0.03164  -0.0672   0.9750   0.0657
  -4.000  -0.1320   0.01781   0.01103  -0.0732   0.9608   0.0284
  -3.000   0.0200   0.01366   0.00659  -0.0807   0.9456   0.0371
  -2.000   0.1476   0.01018   0.00469  -0.0842   0.9200   0.4561
  -1.000   0.2519   0.00839   0.00417  -0.0789   0.8881   0.9342
   0.000   0.3857   0.00788   0.00321  -0.0822   0.8439   1.0000
   1.000   0.4888   0.00785   0.00273  -0.0792   0.7799   1.0000
   2.000   0.5925   0.00825   0.00269  -0.0767   0.6997   1.0000
   3.000   0.6952   0.00898   0.00300  -0.0743   0.6135   1.0000
   4.000   0.7961   0.00992   0.00360  -0.0721   0.5234   1.0000
   5.000   0.8948   0.01110   0.00449  -0.0697   0.4299   1.0000
   6.000   0.9901   0.01260   0.00573  -0.0670   0.3359   1.0000
   7.000   1.0812   0.01447   0.00736  -0.0641   0.2462   1.0000
   8.000   1.1681   0.01664   0.00940  -0.0608   0.1661   1.0000
   9.000   1.2481   0.01925   0.01191  -0.0568   0.0987   1.0000
  10.000   1.2995   0.02399   0.01639  -0.0491   0.0319   1.0000
  11.000   1.3175   0.02989   0.02267  -0.0377   0.0227   1.0000
  12.000   1.3291   0.03738   0.03054  -0.0299   0.0193   1.0000
  13.000   1.3378   0.04745   0.04118  -0.0250   0.0179   1.0000
  14.000   1.3351   0.06036   0.05486  -0.0236   0.0172   1.0000
  15.000   1.2985   0.07958   0.07496  -0.0286   0.0171   1.0000
  16.000   1.2317   0.10802   0.10425  -0.0438   0.0173   1.0000
  17.000   1.1429   0.14867   0.14561  -0.0702   0.0182   1.0000
