  
       XFOIL         Version 6.99
  
 Calculated polar for: S1223                                           
  
 1 1 Reynolds number fixed          Mach number fixed         
  
 xtrf =   1.000 (top)        1.000 (bottom)  
 Mach =   0.000     Re =     0.250 e 6     Ncrit =   9.000
  
   alpha    CL        CD       CDp       CM     Top_Xtr  Bot_Xtr
  ------ -------- --------- --------- -------- -------- --------
  -5.000   0.1613   0.08206   0.07902  -0.0883   0.8842   0.0290
  -4.000   0.2821   0.06702   0.06374  -0.1124   0.8037   0.0300
  -3.000   0.4013   0.05217   0.04780  -0.1329   0.6254   0.0352
  -2.000   0.7708   0.02261   0.01622  -0.2288   0.5367   0.0343
  -1.000   1.0096   0.01761   0.00939  -0.2575   0.4886   0.0424
   0.000   1.1657   0.01709   0.00831  -0.2663   0.4598   0.0526
   1.000   1.2979   0.01785   0.00957  -0.2703   0.4415   0.3523
   2.000   1.4188   0.01878   0.01037  -0.2719   0.4258   0.4121
   3.000   1.5431   0.02004   0.01188  -0.2744   0.4122   0.5542
   4.000   1.6364   0.02064   0.01308  -0.2700   0.4020   1.0000
   5.000   1.7436   0.02221   0.01454  -0.2691   0.3910   1.0000
   6.000   1.8537   0.02464   0.01697  -0.2693   0.3797   1.0000
   7.000   1.9404   0.02600   0.01855  -0.2644   0.3694   1.0000
   8.000   2.0246   0.02746   0.02022  -0.2591   0.3568   1.0000
   9.000   2.1063   0.03000   0.02301  -0.2541   0.3438   1.0000
  10.000   2.1509   0.03148   0.02492  -0.2414   0.3300   1.0000
  11.000   2.1982   0.03372   0.02730  -0.2303   0.3122   1.0000
  12.000   2.2254   0.03666   0.03077  -0.2166   0.2973   1.0000
  13.000   2.2492   0.04092   0.03534  -0.2043   0.2795   1.0000
  14.000   2.2502   0.04726   0.04209  -0.1917   0.2557   1.0000
  15.000   2.2245   0.05868   0.05385  -0.1816   0.2234   1.0000
  16.000   2.1451   0.08051   0.07590  -0.1776   0.1807   1.0000
